41

 C                 -5.15658200   -3.66529600   -0.13751500
 N                 -4.92491500   -2.20832300    0.14793000
 C                 -3.54498700   -1.77456100   -0.33289200
 C                 -3.33886200   -0.30010500   -0.00849700
 C                 -1.93314600    0.14600800   -0.48117200
 C                 -1.71266600    1.58933500   -0.13934800
 C                 -1.32041300    1.95164700    1.14892800
 C                 -1.09869000    3.29304800    1.45318900
 C                 -1.27586200    4.26817300    0.47336200
 C                 -1.67340400    3.90349400   -0.81278400
 C                 -1.88995300    2.56333600   -1.12296900
 O                 -1.07677000   -0.71527900    0.26732500
 C                  0.27285600   -0.61093800    0.09456800
 C                  0.89743900    0.13153700   -0.90421400
 C                  2.28993600    0.11623700   -0.97358700
 C                  3.02445200   -0.63270800   -0.05719100
 C                  2.38029300   -1.37068800    0.94293300
 C                  0.99550300   -1.36702700    1.02899800
 C                  4.52331800   -0.67246700   -0.10523500
 F                  5.08566800    0.02946400   -1.08675900
 F                  5.09964000   -0.21354300    1.00620100
 F                  5.01204400   -1.90445700   -0.25592300
 H                 -6.15691800   -3.98595400    0.21614000
 H                 -4.40242900   -4.30125300    0.36833600
 H                 -5.09892800   -3.88000800   -1.22279700
 H                 -5.00460400   -2.03078800    1.17372000
 H                 -3.45433900   -1.96739000   -1.42668600
 H                 -2.77189000   -2.41162300    0.16731600
 H                 -3.41135500   -0.10321000    1.08399200
 H                 -4.08955300    0.35418800   -0.49542400
 H                 -1.78010900   -0.06805800   -1.56454400
 H                 -1.16911900    1.18756700    1.91150100
 H                 -0.78013900    3.57672800    2.45767300
 H                 -1.09804000    5.31901500    0.71155800
 H                 -1.80811700    4.66784100   -1.57959500
 H                 -2.18875000    2.28323300   -2.13107000
 H                  0.32822700    0.73023000   -1.60841300
 H                  2.78154100    0.70395800   -1.75602300
 H                  2.96135700   -1.95258100    1.66688100
 H                  0.47732900   -1.92603700    1.80285300
 H                 -5.65716500   -1.63269400   -0.32062600

